**
** Heading +++++++++++++++++++++++++++++++++++++++++++++++++
**
*Heading
Hash: VR65Iah5, Date: 01/25/2026, Unit system: M_KG_S_C
**
** Nodes +++++++++++++++++++++++++++++++++++++++++++++++++++
**
*Node
1, -2.50000000E-001, 7.00000000E-002, -5.00000000E-002
2, -2.50000000E-001, -7.00000000E-002, -5.00000000E-002
3, 2.50000000E-001, -7.00000000E-002, -5.00000000E-002
4, 2.50000000E-001, 7.00000000E-002, -5.00000000E-002
5, 2.50000000E-001, -7.00000000E-002, 5.00000000E-002
6, 2.50000000E-001, 7.00000000E-002, 5.00000000E-002
7, -2.50000000E-001, -7.00000000E-002, 5.00000000E-002
8, -2.50000000E-001, 7.00000000E-002, 5.00000000E-002
9, -2.50000000E-001, 1.94289029E-016, -5.00000000E-002
10, -2.50000000E-001, 3.50000000E-002, -5.00000000E-002
11, -2.50000000E-001, -3.50000000E-002, -5.00000000E-002
12, -1.87500000E-001, -7.00000000E-002, -5.00000000E-002
13, -1.25000000E-001, -7.00000000E-002, -5.00000000E-002
14, -6.25000000E-002, -7.00000000E-002, -5.00000000E-002
15, 0.00000000E+000, -7.00000000E-002, -5.00000000E-002
16, 6.25000000E-002, -7.00000000E-002, -5.00000000E-002
17, 1.25000000E-001, -7.00000000E-002, -5.00000000E-002
18, 1.87500000E-001, -7.00000000E-002, -5.00000000E-002
19, -2.18750000E-001, -7.00000000E-002, -5.00000000E-002
20, -1.56250000E-001, -7.00000000E-002, -5.00000000E-002
** ... 241 like lines cut
**
** Elements ++++++++++++++++++++++++++++++++++++++++++++++++
**
*Element, Type=C3D20, Elset=Solid_part-1
1, 1, 9, 93, 30, 90, 156, 219, 161, 10, 101, 100, 37, 157, 227, 228,
169, 92, 159, 226, 183
2, 90, 156, 219, 161, 8, 69, 133, 78, 157, 227, 228, 169, 70, 148, 146,
86, 91, 158, 229, 168
3, 30, 93, 94, 31, 161, 219, 220, 162, 100, 103, 102, 38, 228, 231, 232,
171, 183, 226, 230, 184
4, 161, 219, 220, 162, 78, 133, 132, 77, 228, 231, 232, 171, 146, 147, 144,
85, 168, 229, 233, 170
5, 31, 94, 95, 32, 162, 220, 221, 163, 102, 105, 104, 39, 232, 235, 236,
173, 184, 230, 234, 185
6, 162, 220, 221, 163, 77, 132, 131, 76, 232, 235, 236, 173, 144, 145, 142,
84, 170, 233, 237, 172
7, 32, 95, 96, 33, 163, 221, 222, 164, 104, 107, 106, 40, 236, 239, 240,
175, 185, 234, 238, 186
8, 163, 221, 222, 164, 76, 131, 130, 75, 236, 239, 240, 175, 142, 143, 140,
83, 172, 237, 241, 174
9, 33, 96, 97, 34, 164, 222, 223, 165, 106, 109, 108, 41, 240, 243, 244,
177, 186, 238, 242, 187
10, 164, 222, 223, 165, 75, 130, 129, 74, 240, 243, 244, 177, 140, 141, 138,
82, 174, 241, 245, 176
** ... 44 like lines cut
**
** Node sets +++++++++++++++++++++++++++++++++++++++++++++++
**
*Nset, Nset=Internal_Selection-1_Fixed-1
1, 2, 7, 8, 9, 10, 11, 69, 70, 71, 87, 88, 89, 90, 91, 92, 
156, 157, 158, 159, 160
*Nset, Nset=Internal-1_Internal_Selection-1_Surface_Traction-1
3, 4, 5, 6, 27, 28, 29, 45, 46, 47, 48, 49, 50, 51, 52, 53, 
122, 123, 124, 125, 126
**
** Element sets ++++++++++++++++++++++++++++++++++++++++++++
**
*Elset, Elset=Internal_Selection-1_Solid_Section-1
Solid_part-1
*Elset, Elset=Internal-1_Internal_Selection-1_Surface_Traction-1_S5
15, 16, 31, 32
**
** Surfaces ++++++++++++++++++++++++++++++++++++++++++++++++
**
*Surface, Name=Internal_Selection-1_Surface_Traction-1, Type=Element
Internal-1_Internal_Selection-1_Surface_Traction-1_S5, S5
**
** Physical constants ++++++++++++++++++++++++++++++++++++++
**
**
** Coordinate systems ++++++++++++++++++++++++++++++++++++++
**
**
** Materials +++++++++++++++++++++++++++++++++++++++++++++++
**
*Material, Name=S235
*Density
7800
*Elastic
210000000000, 0.28
*Expansion, Zero=20
1.1E-05
*Conductivity
14
*Specific heat
440
**
** Sections ++++++++++++++++++++++++++++++++++++++++++++++++
**
*Solid section, Elset=Internal_Selection-1_Solid_Section-1, Material=S235
**
** Pre-tension sections ++++++++++++++++++++++++++++++++++++
**
**
** Constraints +++++++++++++++++++++++++++++++++++++++++++++
**
**
** Surface interactions ++++++++++++++++++++++++++++++++++++
**
**
** Contact pairs +++++++++++++++++++++++++++++++++++++++++++
**
**
** Amplitudes ++++++++++++++++++++++++++++++++++++++++++++++
**
**
** Initial conditions ++++++++++++++++++++++++++++++++++++++
**
**
** Steps +++++++++++++++++++++++++++++++++++++++++++++++++++
**
**
** Step-1 ++++++++++++++++++++++++++++++++++++++++++++++++++
**
*Step
*Static
**
** Controls ++++++++++++++++++++++++++++++++++++++++++++++++
**
**
** Output frequency ++++++++++++++++++++++++++++++++++++++++
**
*Output, Frequency=1
**
** Boundary conditions +++++++++++++++++++++++++++++++++++++
**
*Boundary, op=New
** Name: Fixed-1
*Boundary
Internal_Selection-1_Fixed-1, 1, 6, 0
**
** Loads +++++++++++++++++++++++++++++++++++++++++++++++++++
**
*Cload, op=New
*Dload, op=New
** Name: Surface_Traction-1
*Cload
27, 2, 41.6666666666667
122, 2, 83.3333333333333
51, 2, 41.6666666666666
4, 2, 20.8333333333333
124, 2, -1.66666667E+002
123, 2, -1.66666667E+002
52, 2, -8.33333333E+001
28, 2, -8.33333333E+001
48, 2, 41.6666666666666
6, 2, 20.8333333333333
125, 2, -1.66666667E+002
49, 2, -83.333333333333
53, 2, -83.333333333333
3, 2, 20.8333333333334
45, 2, 41.6666666666668
46, 2, -8.33333333E+001
126, 2, -1.66666667E+002
29, 2, -8.33333333E+001
5, 2, 20.8333333333334
47, 2, -8.33333333E+001
50, 2, -8.33333333E+001
**
** Defined fields ++++++++++++++++++++++++++++++++++++++++++
**
**
** History outputs +++++++++++++++++++++++++++++++++++++++++
**
**
** Field outputs +++++++++++++++++++++++++++++++++++++++++++
**
*Node file
RF, U
*El file
S, E, NOE
**
** End step ++++++++++++++++++++++++++++++++++++++++++++++++
**
*End step
