**
** Heading +++++++++++++++++++++++++++++++++++++++++++++++++
**
*Heading
Hash: v5AunGqV, Date: 01/14/2026, Unit system: M_KG_S_C
**
** Nodes +++++++++++++++++++++++++++++++++++++++++++++++++++
**
*Node
1, -2.50000000E-001, 5.00000000E-002, -5.00000000E-002
2, -2.50000000E-001, -5.00000000E-002, -5.00000000E-002
3, 2.50000000E-001, -5.00000000E-002, -5.00000000E-002
4, 2.50000000E-001, 5.00000000E-002, -5.00000000E-002
5, 2.50000000E-001, -5.00000000E-002, 5.00000000E-002
6, 2.50000000E-001, 5.00000000E-002, 5.00000000E-002
7, -2.50000000E-001, -5.00000000E-002, 5.00000000E-002
8, -2.50000000E-001, 5.00000000E-002, 5.00000000E-002
9, 0.00000000E+000, -5.00000000E-002, -5.00000000E-002
10, 0.00000000E+000, 5.00000000E-002, -5.00000000E-002
11, 0.00000000E+000, -5.00000000E-002, 5.00000000E-002
12, 0.00000000E+000, 5.00000000E-002, 5.00000000E-002
**
** Elements ++++++++++++++++++++++++++++++++++++++++++++++++
**
*Element, Type=C3D8, Elset=Solid_part-1
1, 1, 2, 9, 10, 8, 7, 11, 12
2, 10, 9, 3, 4, 12, 11, 5, 6
**
** Node sets +++++++++++++++++++++++++++++++++++++++++++++++
**
*Nset, Nset=Internal_Selection-1_Fixed-1
1, 2, 7, 8
*Nset, Nset=Internal_Selection-1_Concentrated_Force-1
3, 4, 5, 6
**
** Element sets ++++++++++++++++++++++++++++++++++++++++++++
**
*Elset, Elset=Internal_Selection-1_Solid_Section-1
Solid_part-1
**
** Surfaces ++++++++++++++++++++++++++++++++++++++++++++++++
**
**
** Physical constants ++++++++++++++++++++++++++++++++++++++
**
**
** Coordinate systems ++++++++++++++++++++++++++++++++++++++
**
**
** Materials +++++++++++++++++++++++++++++++++++++++++++++++
**
*Material, Name=S235
*Density
7800
*Elastic
210000000000, 0.28
*Expansion, Zero=20
1.1E-05
*Conductivity
14
*Specific heat
440
**
** Sections ++++++++++++++++++++++++++++++++++++++++++++++++
**
*Solid section, Elset=Internal_Selection-1_Solid_Section-1, Material=S235
**
** Pre-tension sections ++++++++++++++++++++++++++++++++++++
**
**
** Constraints +++++++++++++++++++++++++++++++++++++++++++++
**
**
** Surface interactions ++++++++++++++++++++++++++++++++++++
**
**
** Contact pairs +++++++++++++++++++++++++++++++++++++++++++
**
**
** Amplitudes ++++++++++++++++++++++++++++++++++++++++++++++
**
**
** Initial conditions ++++++++++++++++++++++++++++++++++++++
**
**
** Steps +++++++++++++++++++++++++++++++++++++++++++++++++++
**
**
** Step-1 ++++++++++++++++++++++++++++++++++++++++++++++++++
**
*Step
*Static
**
** Controls ++++++++++++++++++++++++++++++++++++++++++++++++
**
**
** Output frequency ++++++++++++++++++++++++++++++++++++++++
**
*Output, Frequency=1
**
** Boundary conditions +++++++++++++++++++++++++++++++++++++
**
*Boundary, op=New
** Name: Fixed-1
*Boundary
Internal_Selection-1_Fixed-1, 1, 6, 0
**
** Loads +++++++++++++++++++++++++++++++++++++++++++++++++++
**
*Cload, op=New
*Dload, op=New
** Name: Concentrated_Force-1
*Cload
Internal_Selection-1_Concentrated_Force-1, 2, -1000
**
** Defined fields ++++++++++++++++++++++++++++++++++++++++++
**
**
** History outputs +++++++++++++++++++++++++++++++++++++++++
**
**
** Field outputs +++++++++++++++++++++++++++++++++++++++++++
**
*Node file
RF, U
*El file
S, E, NOE
**
** End step ++++++++++++++++++++++++++++++++++++++++++++++++
**
*End step
